powerflow/Codes/PF_Formulation/resultados_csv/test_system__17_csca__bus.csv
ID_Barra,Tipo_Barra,Vm_pu,Va_graus,Pg_pu,Qg_pu,Pd_pu,Qd_pu,Slack_QLIM,Slack_VLIM
23,3,1.024999999971028,0.0,0.3482855382920313,-0.0798849782072427,0.0,0.0,0.0,0.0
24,1,1.0287769732870484,-12.34541915890843,0.0,0.0,0.34600000000000003,0.069,0.0,8.688655138705267e-12
26,1,1.040946591981659,-6.790363161575802,0.0,0.0,0.0,0.0,0.0,6.522390633693132e-12
29,1,1.0300899747606256,-1.1813262002675893,0.0,0.0,0.0,0.0,0.0,1.4590585274241618e-12
